Version 4
SHEET 1 2168 932
WIRE -336 -352 -480 -352
WIRE 416 -352 192 -352
WIRE -480 -288 -480 -352
WIRE -320 -288 -352 -288
WIRE 192 -288 192 -352
WIRE 416 -288 416 -352
WIRE -512 -240 -688 -240
WIRE -480 -240 -512 -240
WIRE -336 -224 -336 -352
WIRE -336 -224 -352 -224
WIRE -688 -176 -688 -240
WIRE 192 -176 192 -208
WIRE 240 -176 192 -176
WIRE -512 -144 -512 -240
WIRE -160 -144 -512 -144
WIRE -48 -128 -96 -128
WIRE 192 -128 192 -176
WIRE -160 -112 -176 -112
WIRE -688 -64 -688 -96
WIRE -320 -64 -320 -288
WIRE -160 -64 -320 -64
WIRE -48 -48 -96 -48
WIRE 144 -48 96 -48
WIRE -176 -32 -176 -112
WIRE -176 -32 -592 -32
WIRE -160 -32 -176 -32
WIRE -592 0 -592 -32
WIRE 192 32 192 -32
WIRE 144 112 96 112
FLAG -688 -64 0
FLAG -592 80 0
FLAG -48 -128 A
IOPIN -48 -128 Out
FLAG -48 -48 B
IOPIN -48 -48 Out
FLAG 192 128 0
FLAG 416 -208 0
FLAG 96 -48 A
IOPIN 96 -48 In
FLAG 96 112 B
IOPIN 96 112 In
FLAG 240 -176 Y
IOPIN 240 -176 Out
SYMBOL voltage -688 -192 R0
WINDOW 123 0 0 Left 0
WINDOW 39 0 0 Left 0
SYMATTR InstName V4
SYMATTR Value PULSE(0 5 0 1n9 1n9 1 2)
SYMBOL DigitalLogic\\DFF -416 -256 R0
SYMATTR InstName U1
SYMBOL DigitalLogic\\AND_2 -128 -128 R0
SYMATTR InstName U4
SYMBOL DigitalLogic\\AND_2 -128 -48 R0
SYMATTR InstName U5
SYMBOL voltage -592 -16 R0
WINDOW 123 0 0 Left 0
WINDOW 39 0 0 Left 0
SYMATTR InstName V5
SYMATTR Value PULSE(0 5 0.1 1n9 1n9 0.8 1)
SYMBOL nmos 144 -128 R0
SYMATTR InstName M1
SYMBOL nmos 144 32 R0
SYMATTR InstName M2
SYMBOL res 176 -304 R0
SYMATTR InstName R6
SYMATTR Value 48600
SYMBOL voltage 416 -304 R0
WINDOW 123 0 0 Left 0
WINDOW 39 0 0 Left 0
SYMATTR InstName V2
SYMATTR Value 5
TEXT -384 -416 Left 2 !.tran 4
TEXT -752 -24 Left 2 !;tran 16
