Version 4
SHEET 1 1468 872
WIRE 352 48 208 48
WIRE 544 48 400 48
WIRE 752 48 608 48
WIRE 208 112 208 48
WIRE 368 112 336 112
WIRE 400 112 400 48
WIRE 576 112 528 112
WIRE 608 112 608 48
WIRE 800 112 736 112
WIRE 176 160 0 160
WIRE 208 160 176 160
WIRE 368 160 368 112
WIRE 400 160 368 160
WIRE 576 160 576 112
WIRE 608 160 576 160
WIRE 352 176 352 48
WIRE 352 176 336 176
WIRE 544 176 544 48
WIRE 544 176 528 176
WIRE 752 176 752 48
WIRE 752 176 736 176
WIRE 0 224 0 160
WIRE 176 256 176 160
WIRE 832 256 176 256
WIRE 944 272 896 272
WIRE 832 288 816 288
WIRE 0 336 0 304
WIRE 368 336 368 160
WIRE 832 336 368 336
WIRE 944 352 896 352
WIRE 816 368 816 288
WIRE 816 368 96 368
WIRE 832 368 816 368
WIRE 96 400 96 368
WIRE 576 416 576 160
WIRE 832 416 576 416
WIRE 944 432 896 432
WIRE 816 448 816 368
WIRE 832 448 816 448
WIRE 800 496 800 112
WIRE 832 496 800 496
WIRE 944 512 896 512
WIRE 816 528 816 448
WIRE 832 528 816 528
WIRE 432 656 352 656
WIRE 544 672 496 672
WIRE 432 688 352 688
WIRE 544 720 544 672
WIRE 560 720 544 720
WIRE 688 736 624 736
WIRE 560 752 544 752
WIRE 432 768 352 768
WIRE 544 784 544 752
WIRE 544 784 496 784
WIRE 432 800 352 800
FLAG 0 336 0
FLAG 688 736 Y
IOPIN 688 736 Out
FLAG 96 480 0
FLAG 944 272 A
IOPIN 944 272 Out
FLAG 944 352 B
IOPIN 944 352 Out
FLAG 944 432 C
IOPIN 944 432 Out
FLAG 944 512 D
IOPIN 944 512 Out
FLAG 352 656 A
IOPIN 352 656 In
FLAG 352 688 B
IOPIN 352 688 In
FLAG 352 768 C
IOPIN 352 768 In
FLAG 352 800 D
IOPIN 352 800 In
SYMBOL voltage 0 208 R0
WINDOW 123 0 0 Left 0
WINDOW 39 0 0 Left 0
SYMATTR InstName V2
SYMATTR Value PULSE(0 5 0 1n9 1n9 1 2)
SYMBOL DigitalLogic\\DFF 272 144 R0
SYMATTR InstName U2
SYMBOL DigitalLogic\\DFF 464 144 R0
SYMATTR InstName U3
SYMBOL DigitalLogic\\DFF 672 144 R0
SYMATTR InstName U4
SYMBOL DigitalLogic\\AND_2 464 672 R0
SYMATTR InstName U5
SYMBOL DigitalLogic\\AND_2 464 784 R0
SYMATTR InstName U6
SYMBOL DigitalLogic\\AND_2 864 272 R0
SYMATTR InstName U1
SYMBOL DigitalLogic\\AND_2 864 352 R0
SYMATTR InstName U8
SYMBOL DigitalLogic\\AND_2 864 432 R0
SYMATTR InstName U9
SYMBOL DigitalLogic\\AND_2 864 512 R0
SYMATTR InstName U10
SYMBOL voltage 96 384 R0
WINDOW 123 0 0 Left 0
WINDOW 39 0 0 Left 0
SYMATTR InstName V1
SYMATTR Value PULSE(0 5 0.1 1n9 1n9 0.8 1)
SYMBOL DigitalLogic\\OR_2 592 736 R0
SYMATTR InstName U11
TEXT -64 376 Left 2 !.tran 16
